Version 4
SHEET 1 992 680
WIRE 464 176 400 176
WIRE 656 176 544 176
WIRE 464 240 464 176
WIRE 544 240 464 240
WIRE 656 256 656 176
WIRE 656 256 608 256
WIRE 688 256 656 256
WIRE 304 272 304 176
WIRE 544 272 304 272
WIRE 304 288 304 272
WIRE 400 288 400 176
WIRE 304 384 304 368
WIRE 400 384 400 368
FLAG 304 384 0
FLAG 576 288 0
FLAG 176 272 0
FLAG 176 192 Vcc
FLAG 304 96 Vcc
FLAG 400 96 Vcc
FLAG 576 224 Vcc
FLAG 400 384 0
FLAG 688 256 Vout
IOPIN 688 256 Out
SYMBOL Res 288 80 R0
SYMATTR InstName R1
SYMATTR Value {ntc}
SYMBOL Res 288 272 R0
SYMATTR InstName R2
SYMATTR Value {R1}
SYMBOL AD8648 576 192 R0
SYMATTR InstName U1
SYMBOL Res 384 80 R0
SYMATTR InstName R3
SYMATTR Value {R2}
SYMBOL Res 560 160 R90
WINDOW 0 0 56 VBottom 2
WINDOW 3 32 56 VTop 2
SYMATTR InstName R5
SYMATTR Value {R3}
SYMBOL Voltage 176 176 R0
SYMATTR InstName V1
SYMATTR Value 5
SYMBOL Res 384 272 R0
SYMATTR InstName R4
SYMATTR Value {R2}
TEXT 584 368 Left 1 !.param R1=5k R2=1k R3=0.5K
TEXT 584 384 Left 1 !.step param ntc 2.28k 6.87k 0.1k
TEXT 584 352 Left 1 !.op
TEXT 464 -8 Center 1 ;EE3901 \nExp - 2\nNTC Thermistor
TEXT 104 376 Left 1 ;Venkata Subhash \n23f3000773
RECTANGLE Normal 80 36 860 412 2
